Circuit: * C:\users\segundomolinaabeniacar\My Documents\Circuitos2\TPdisenio.asc

Direct Newton iteration failed to find .op point.  (Use ".option noopiter" to skip.)
Starting Gmin stepping
Gmin = 10
Gmin = 1.07374
Gmin = 0.115292
Gmin = 0.0123794
Gmin = 0.00132923
vernier = 0.5
Gmin = 0.000305909
vernier = 0.666667
vernier = 0.888888
Gmin = 6.41661e-005
vernier = 1
Gmin = 7.53781e-006
Gmin = 8.09366e-007
Gmin = 8.6905e-008
Gmin = 9.33136e-009
Gmin = 1.00195e-009
Gmin = 1.07583e-010
Gmin = 1.15517e-011
Gmin = 1.24035e-012
Gmin = 1.33182e-013
Gmin = 0
Gmin stepping succeeded in finding the operating point.


Date: Sun May 26 15:47:22 2019
Total elapsed time: 2.838 seconds.

tnom = 27
temp = 27
method = modified trap
totiter = 16597
traniter = 15825
tranpoints = 4342
accept = 3293
rejected = 1049
matrix size = 50
fillins = 62
solver = Alternate
Matrix Compiler1: 8.64 KB object code size  18.2/12.5/[11.7]
Matrix Compiler2: 6.26 KB object code size  9.2/12.6/[9.2]

